data_site_adsorbate
_audit_creation_date              2022-02-10
_audit_creation_method            'Materials Studio'
_symmetry_space_group_name_H-M    'P1'
_symmetry_Int_Tables_number       1
_symmetry_cell_setting            triclinic
loop_
_symmetry_equiv_pos_as_xyz
  x,y,z
_cell_length_a                    10.0000
_cell_length_b                    10.0000
_cell_length_c                    10.0000
_cell_angle_alpha                 90.0000
_cell_angle_beta                  90.0000
_cell_angle_gamma                 90.0000
loop_
_atom_site_label
_atom_site_type_symbol
_atom_site_fract_x
_atom_site_fract_y
_atom_site_fract_z
_atom_site_U_iso_or_equiv
_atom_site_adp_type
_atom_site_occupancy
Bi0    Bi    0.68958   1.39285   0.24403   0.00000  Uiso   1.00
O5     O     0.54921   1.50908   0.38812   0.00000  Uiso   1.00
Bi1    Bi    0.38592   1.61968   0.23852   0.00000  Uiso   1.00
C2     C     0.55939   0.51405   0.55559   0.00000  Uiso   1.00
O3     O     0.48354   0.43505   0.62403   0.00000  Uiso   1.00
O7     O     0.64703   0.58841   0.61422   0.00000  Uiso   1.00
loop_
_geom_bond_atom_site_label_1
_geom_bond_atom_site_label_2
_geom_bond_distance
_geom_bond_site_symmetry_2
_ccdc_geom_bond_type
Bi0    O5      2.323   .     S
O5     Bi1     2.475   .     S
O5     C2      1.679   1_565 S
C2     O3      1.291   .     D
C2     O7      1.290   .     S
C2     O5      1.679   1_545 S
