data_blank
_audit_creation_date              2022-02-10
_audit_creation_method            'Materials Studio'
_symmetry_space_group_name_H-M    'P1'
_symmetry_Int_Tables_number       1
_symmetry_cell_setting            triclinic
loop_
_symmetry_equiv_pos_as_xyz
  x,y,z
_cell_length_a                    5.8061
_cell_length_b                    14.3387
_cell_length_c                    19.3194
_cell_angle_alpha                 90.0000
_cell_angle_beta                  90.0000
_cell_angle_gamma                 81.0568
loop_
_atom_site_label
_atom_site_type_symbol
_atom_site_fract_x
_atom_site_fract_y
_atom_site_fract_z
_atom_site_U_iso_or_equiv
_atom_site_adp_type
_atom_site_occupancy
Bi1    Bi    0.58516   0.93759  -0.00000   0.00000  Uiso   1.00
Bi2    Bi    0.90083   0.41771   0.07161   0.00000  Uiso   1.00
Bi3    Bi    0.21651   0.89784   0.14323   0.00000  Uiso   1.00
Bi4    Bi    0.53218   0.37797   0.21484   0.00000  Uiso   1.00
Bi5    Bi    0.84786   0.85810   0.28645   0.00000  Uiso   1.00
Bi6    Bi    0.02042   0.10621   0.02515   0.00000  Uiso   1.00
Bi7    Bi    0.33609   0.58634   0.09676   0.00000  Uiso   1.00
Bi8    Bi    0.65177   0.06647   0.16838   0.00000  Uiso   1.00
Bi9    Bi    0.28312   0.02673   0.31161   0.00000  Uiso   1.00
Bi10   Bi    0.96745   0.54660   0.23999   0.00000  Uiso   1.00
C11    C     0.45454   0.27781   0.05075   0.00000  Uiso   1.00
C12    C     0.08589   0.23807   0.19397   0.00000  Uiso   1.00
C13    C     0.77022   0.75794   0.12236   0.00000  Uiso   1.00
C14    C     0.40157   0.71820   0.26559   0.00000  Uiso   1.00
C15    C     0.71724   0.19833   0.33720   0.00000  Uiso   1.00
O16    O     0.48884   0.18847   0.03742   0.00000  Uiso   1.00
O17    O     0.12019   0.14873   0.18065   0.00000  Uiso   1.00
O18    O     0.80452   0.66860   0.10903   0.00000  Uiso   1.00
O19    O     0.43587   0.62886   0.25226   0.00000  Uiso   1.00
O20    O     0.75154   0.10899   0.32387   0.00000  Uiso   1.00
O21    O     0.28336   0.33307   0.02268   0.00000  Uiso   1.00
O22    O    -0.08529   0.29333   0.16591   0.00000  Uiso   1.00
O23    O     0.59904   0.81320   0.09430   0.00000  Uiso   1.00
O24    O     0.23039   0.77346   0.23752   0.00000  Uiso   1.00
O25    O     0.54607   0.25359   0.30914   0.00000  Uiso   1.00
O26    O     0.04610   0.53931   0.01517   0.00000  Uiso   1.00
O27    O     0.36178   0.01944   0.08679   0.00000  Uiso   1.00
O28    O     0.67745   0.49957   0.15840   0.00000  Uiso   1.00
O29    O     0.30881   0.45983   0.30163   0.00000  Uiso   1.00
O30    O     0.99313   0.97970   0.23001   0.00000  Uiso   1.00
O31    O     0.62448   0.93996   0.37324   0.00000  Uiso   1.00
O32    O     0.55535   0.51523   0.01158   0.00000  Uiso   1.00
O33    O     0.18670   0.47549   0.15481   0.00000  Uiso   1.00
O34    O     0.87102   0.99536   0.08320   0.00000  Uiso   1.00
O35    O     0.50237   0.95562   0.22642   0.00000  Uiso   1.00
O36    O     0.81805   0.43575   0.29804   0.00000  Uiso   1.00
O37    O     0.13372   0.91588   0.36965   0.00000  Uiso   1.00
O38    O     0.59072   0.31372   0.09241   0.00000  Uiso   1.00
O39    O     0.22207   0.27398   0.23564   0.00000  Uiso   1.00
O40    O     0.90639   0.79385   0.16402   0.00000  Uiso   1.00
O41    O     0.53775   0.75411   0.30725   0.00000  Uiso   1.00
O42    O     0.85342   0.23424   0.37886   0.00000  Uiso   1.00
loop_
_geom_bond_atom_site_label_1
_geom_bond_atom_site_label_2
_geom_bond_distance
_geom_bond_site_symmetry_2
_ccdc_geom_bond_type
Bi1    O27     2.323   1_565 S
Bi2    O28     2.323   .     S
Bi2    O26     2.323   1_655 S
Bi3    O30     2.323   1_455 S
Bi3    O27     2.323   1_565 S
Bi4    O29     2.323   .     S
Bi4    O28     2.323   .     S
Bi5    O31     2.323   .     S
Bi5    O30     2.323   .     S
Bi6    O27     2.475   .     S
Bi6    O34     2.228   1_445 S
Bi7    O26     2.475   .     S
Bi7    O28     2.475   .     S
Bi7    O32     2.228   .     S
Bi7    O33     2.228   .     S
Bi8    O27     2.475   .     S
Bi8    O30     2.475   1_545 S
Bi8    O34     2.228   1_545 S
Bi8    O35     2.228   1_545 S
Bi9    O30     2.475   1_445 S
Bi9    O31     2.475   1_545 S
Bi9    O35     2.228   1_545 S
Bi9    O37     2.228   1_545 S
Bi10   O28     2.475   .     S
Bi10   O29     2.475   1_655 S
Bi10   O33     2.228   1_655 S
Bi10   O36     2.228   .     S
C11    O16     1.291   .     S
C11    O21     1.290   .     S
C11    O38     1.290   .     D
C12    O17     1.291   .     S
C12    O22     1.290   .     S
C12    O39     1.290   .     D
C13    O18     1.291   .     S
C13    O23     1.290   .     S
C13    O40     1.290   .     D
C14    O19     1.291   .     S
C14    O24     1.290   .     S
C14    O41     1.290   .     D
C15    O20     1.291   .     S
C15    O25     1.290   .     S
C15    O42     1.290   .     D
O26    Bi2     2.323   1_455 S
O27    Bi1     2.323   1_545 S
O27    Bi3     2.323   1_545 S
O29    Bi10    2.475   1_455 S
O30    Bi3     2.323   1_655 S
O30    Bi9     2.475   1_665 S
O30    Bi8     2.475   1_565 S
O31    Bi9     2.475   1_565 S
O33    Bi10    2.228   1_455 S
O34    Bi8     2.228   1_565 S
O34    Bi6     2.228   1_665 S
O35    Bi9     2.228   1_565 S
O35    Bi8     2.228   1_565 S
O37    Bi9     2.228   1_565 S
