data_blank
_audit_creation_date              2022-02-10
_audit_creation_method            'Materials Studio'
_symmetry_space_group_name_H-M    'P1'
_symmetry_Int_Tables_number       1
_symmetry_cell_setting            triclinic
loop_
_symmetry_equiv_pos_as_xyz
  x,y,z
_cell_length_a                    23.2246
_cell_length_b                    28.6774
_cell_length_c                    19.3194
_cell_angle_alpha                 90.0000
_cell_angle_beta                  90.0000
_cell_angle_gamma                 81.0568
loop_
_atom_site_label
_atom_site_type_symbol
_atom_site_fract_x
_atom_site_fract_y
_atom_site_fract_z
_atom_site_U_iso_or_equiv
_atom_site_adp_type
_atom_site_occupancy
Bi1    Bi    0.14629   0.46879  -0.00000   0.00000  Uiso   1.00
Bi2    Bi    0.22521   0.20886   0.07161   0.00000  Uiso   1.00
Bi3    Bi    0.05413   0.44892   0.14323   0.00000  Uiso   1.00
Bi4    Bi    0.13305   0.18899   0.21484   0.00000  Uiso   1.00
Bi5    Bi    0.21196   0.42905   0.28645   0.00000  Uiso   1.00
Bi6    Bi    0.00510   0.55311   0.02515   0.00000  Uiso   1.00
Bi7    Bi    0.08402   0.29317   0.09676   0.00000  Uiso   1.00
Bi8    Bi    0.16294   0.53324   0.16838   0.00000  Uiso   1.00
Bi9    Bi    0.07078   0.51336   0.31161   0.00000  Uiso   1.00
Bi10   Bi    0.24186   0.27330   0.23999   0.00000  Uiso   1.00
C11    C     0.11364   0.13891   0.05075   0.00000  Uiso   1.00
C12    C     0.02147   0.11903   0.19397   0.00000  Uiso   1.00
C13    C     0.19255   0.37897   0.12236   0.00000  Uiso   1.00
C14    C     0.10039   0.35910   0.26559   0.00000  Uiso   1.00
C15    C     0.17931   0.09916   0.33720   0.00000  Uiso   1.00
O16    O     0.12221   0.09424   0.03742   0.00000  Uiso   1.00
O17    O     0.03005   0.07436   0.18065   0.00000  Uiso   1.00
O18    O     0.20113   0.33430   0.10903   0.00000  Uiso   1.00
O19    O     0.10897   0.31443   0.25226   0.00000  Uiso   1.00
O20    O     0.18789   0.05449   0.32387   0.00000  Uiso   1.00
O21    O     0.07084   0.16654   0.02268   0.00000  Uiso   1.00
O22    O    -0.02132   0.14666   0.16591   0.00000  Uiso   1.00
O23    O     0.14976   0.40660   0.09430   0.00000  Uiso   1.00
O24    O     0.05760   0.38673   0.23752   0.00000  Uiso   1.00
O25    O     0.13652   0.12679   0.30914   0.00000  Uiso   1.00
O26    O     0.01153   0.26966   0.01517   0.00000  Uiso   1.00
O27    O     0.09044   0.50972   0.08679   0.00000  Uiso   1.00
O28    O     0.16936   0.24978   0.15840   0.00000  Uiso   1.00
O29    O     0.07720   0.22991   0.30163   0.00000  Uiso   1.00
O30    O     0.24828   0.48985   0.23001   0.00000  Uiso   1.00
O31    O     0.15612   0.46998   0.37324   0.00000  Uiso   1.00
O32    O     0.13884   0.25762   0.01158   0.00000  Uiso   1.00
O33    O     0.04667   0.23775   0.15481   0.00000  Uiso   1.00
O34    O     0.21776   0.49768   0.08320   0.00000  Uiso   1.00
O35    O     0.12559   0.47781   0.22642   0.00000  Uiso   1.00
O36    O     0.20451   0.21788   0.29804   0.00000  Uiso   1.00
O37    O     0.03343   0.45794   0.36965   0.00000  Uiso   1.00
O38    O     0.14768   0.15686   0.09241   0.00000  Uiso   1.00
O39    O     0.05552   0.13699   0.23564   0.00000  Uiso   1.00
O40    O     0.22660   0.39693   0.16402   0.00000  Uiso   1.00
O41    O     0.13444   0.37705   0.30725   0.00000  Uiso   1.00
O42    O     0.21336   0.11712   0.37886   0.00000  Uiso   1.00
Bi43   Bi    0.39629   0.46879  -0.00000   0.00000  Uiso   1.00
Bi44   Bi    0.47521   0.20886   0.07161   0.00000  Uiso   1.00
Bi45   Bi    0.30413   0.44892   0.14323   0.00000  Uiso   1.00
Bi46   Bi    0.38305   0.18899   0.21484   0.00000  Uiso   1.00
Bi47   Bi    0.46196   0.42905   0.28645   0.00000  Uiso   1.00
Bi48   Bi    0.25510   0.55311   0.02515   0.00000  Uiso   1.00
Bi49   Bi    0.33402   0.29317   0.09676   0.00000  Uiso   1.00
Bi50   Bi    0.41294   0.53324   0.16838   0.00000  Uiso   1.00
Bi51   Bi    0.32078   0.51336   0.31161   0.00000  Uiso   1.00
Bi52   Bi    0.49186   0.27330   0.23999   0.00000  Uiso   1.00
C53    C     0.36364   0.13891   0.05075   0.00000  Uiso   1.00
C54    C     0.27147   0.11903   0.19397   0.00000  Uiso   1.00
C55    C     0.44255   0.37897   0.12236   0.00000  Uiso   1.00
C56    C     0.35039   0.35910   0.26559   0.00000  Uiso   1.00
C57    C     0.42931   0.09916   0.33720   0.00000  Uiso   1.00
O58    O     0.37221   0.09424   0.03742   0.00000  Uiso   1.00
O59    O     0.28005   0.07436   0.18065   0.00000  Uiso   1.00
O60    O     0.45113   0.33430   0.10903   0.00000  Uiso   1.00
O61    O     0.35897   0.31443   0.25226   0.00000  Uiso   1.00
O62    O     0.43789   0.05449   0.32387   0.00000  Uiso   1.00
O63    O     0.32084   0.16654   0.02268   0.00000  Uiso   1.00
O64    O     0.22868   0.14666   0.16591   0.00000  Uiso   1.00
O65    O     0.39976   0.40660   0.09430   0.00000  Uiso   1.00
O66    O     0.30760   0.38673   0.23752   0.00000  Uiso   1.00
O67    O     0.38652   0.12679   0.30914   0.00000  Uiso   1.00
O68    O     0.26153   0.26966   0.01517   0.00000  Uiso   1.00
O69    O     0.34044   0.50972   0.08679   0.00000  Uiso   1.00
O70    O     0.41936   0.24978   0.15840   0.00000  Uiso   1.00
O71    O     0.32720   0.22991   0.30163   0.00000  Uiso   1.00
O72    O     0.49828   0.48985   0.23001   0.00000  Uiso   1.00
O73    O     0.40612   0.46998   0.37324   0.00000  Uiso   1.00
O74    O     0.38884   0.25762   0.01158   0.00000  Uiso   1.00
O75    O     0.29667   0.23775   0.15481   0.00000  Uiso   1.00
O76    O     0.46776   0.49768   0.08320   0.00000  Uiso   1.00
O77    O     0.37559   0.47781   0.22642   0.00000  Uiso   1.00
O78    O     0.45451   0.21788   0.29804   0.00000  Uiso   1.00
O79    O     0.28343   0.45794   0.36965   0.00000  Uiso   1.00
O80    O     0.39768   0.15686   0.09241   0.00000  Uiso   1.00
O81    O     0.30552   0.13699   0.23564   0.00000  Uiso   1.00
O82    O     0.47660   0.39693   0.16402   0.00000  Uiso   1.00
O83    O     0.38444   0.37705   0.30725   0.00000  Uiso   1.00
O84    O     0.46336   0.11712   0.37886   0.00000  Uiso   1.00
Bi85   Bi    0.64629   0.46879  -0.00000   0.00000  Uiso   1.00
Bi86   Bi    0.72521   0.20886   0.07161   0.00000  Uiso   1.00
Bi87   Bi    0.55413   0.44892   0.14323   0.00000  Uiso   1.00
Bi88   Bi    0.63305   0.18899   0.21484   0.00000  Uiso   1.00
Bi89   Bi    0.71196   0.42905   0.28645   0.00000  Uiso   1.00
Bi90   Bi    0.50510   0.55311   0.02515   0.00000  Uiso   1.00
Bi91   Bi    0.58402   0.29317   0.09676   0.00000  Uiso   1.00
Bi92   Bi    0.66294   0.53324   0.16838   0.00000  Uiso   1.00
Bi93   Bi    0.57078   0.51336   0.31161   0.00000  Uiso   1.00
Bi94   Bi    0.74186   0.27330   0.23999   0.00000  Uiso   1.00
C95    C     0.61364   0.13891   0.05075   0.00000  Uiso   1.00
C96    C     0.52147   0.11903   0.19397   0.00000  Uiso   1.00
C97    C     0.69255   0.37897   0.12236   0.00000  Uiso   1.00
C98    C     0.60039   0.35910   0.26559   0.00000  Uiso   1.00
C99    C     0.67931   0.09916   0.33720   0.00000  Uiso   1.00
O100   O     0.62221   0.09424   0.03742   0.00000  Uiso   1.00
O101   O     0.53005   0.07436   0.18065   0.00000  Uiso   1.00
O102   O     0.70113   0.33430   0.10903   0.00000  Uiso   1.00
O103   O     0.60897   0.31443   0.25226   0.00000  Uiso   1.00
O104   O     0.68789   0.05449   0.32387   0.00000  Uiso   1.00
O105   O     0.57084   0.16654   0.02268   0.00000  Uiso   1.00
O106   O     0.47868   0.14666   0.16591   0.00000  Uiso   1.00
O107   O     0.64976   0.40660   0.09430   0.00000  Uiso   1.00
O108   O     0.55760   0.38673   0.23752   0.00000  Uiso   1.00
O109   O     0.63652   0.12679   0.30914   0.00000  Uiso   1.00
O110   O     0.51153   0.26966   0.01517   0.00000  Uiso   1.00
O111   O     0.59044   0.50972   0.08679   0.00000  Uiso   1.00
O112   O     0.66936   0.24978   0.15840   0.00000  Uiso   1.00
O113   O     0.57720   0.22991   0.30163   0.00000  Uiso   1.00
O114   O     0.74828   0.48985   0.23001   0.00000  Uiso   1.00
O115   O     0.65612   0.46998   0.37324   0.00000  Uiso   1.00
O116   O     0.63884   0.25762   0.01158   0.00000  Uiso   1.00
O117   O     0.54667   0.23775   0.15481   0.00000  Uiso   1.00
O118   O     0.71776   0.49768   0.08320   0.00000  Uiso   1.00
O119   O     0.62559   0.47781   0.22642   0.00000  Uiso   1.00
O120   O     0.70451   0.21788   0.29804   0.00000  Uiso   1.00
O121   O     0.53343   0.45794   0.36965   0.00000  Uiso   1.00
O122   O     0.64768   0.15686   0.09241   0.00000  Uiso   1.00
O123   O     0.55552   0.13699   0.23564   0.00000  Uiso   1.00
O124   O     0.72660   0.39693   0.16402   0.00000  Uiso   1.00
O125   O     0.63444   0.37705   0.30725   0.00000  Uiso   1.00
O126   O     0.71336   0.11712   0.37886   0.00000  Uiso   1.00
Bi127  Bi    0.89629   0.46879  -0.00000   0.00000  Uiso   1.00
Bi128  Bi    0.97521   0.20886   0.07161   0.00000  Uiso   1.00
Bi129  Bi    0.80413   0.44892   0.14323   0.00000  Uiso   1.00
Bi130  Bi    0.88305   0.18899   0.21484   0.00000  Uiso   1.00
Bi131  Bi    0.96196   0.42905   0.28645   0.00000  Uiso   1.00
Bi132  Bi    0.75510   0.55311   0.02515   0.00000  Uiso   1.00
Bi133  Bi    0.83402   0.29317   0.09676   0.00000  Uiso   1.00
Bi134  Bi    0.91294   0.53324   0.16838   0.00000  Uiso   1.00
Bi135  Bi    0.82078   0.51336   0.31161   0.00000  Uiso   1.00
Bi136  Bi    0.99186   0.27330   0.23999   0.00000  Uiso   1.00
C137   C     0.86364   0.13891   0.05075   0.00000  Uiso   1.00
C138   C     0.77147   0.11903   0.19397   0.00000  Uiso   1.00
C139   C     0.94255   0.37897   0.12236   0.00000  Uiso   1.00
C140   C     0.85039   0.35910   0.26559   0.00000  Uiso   1.00
C141   C     0.92931   0.09916   0.33720   0.00000  Uiso   1.00
O142   O     0.87221   0.09424   0.03742   0.00000  Uiso   1.00
O143   O     0.78005   0.07436   0.18065   0.00000  Uiso   1.00
O144   O     0.95113   0.33430   0.10903   0.00000  Uiso   1.00
O145   O     0.85897   0.31443   0.25226   0.00000  Uiso   1.00
O146   O     0.93789   0.05449   0.32387   0.00000  Uiso   1.00
O147   O     0.82084   0.16654   0.02268   0.00000  Uiso   1.00
O148   O     0.72868   0.14666   0.16591   0.00000  Uiso   1.00
O149   O     0.89976   0.40660   0.09430   0.00000  Uiso   1.00
O150   O     0.80760   0.38673   0.23752   0.00000  Uiso   1.00
O151   O     0.88652   0.12679   0.30914   0.00000  Uiso   1.00
O152   O     0.76153   0.26966   0.01517   0.00000  Uiso   1.00
O153   O     0.84044   0.50972   0.08679   0.00000  Uiso   1.00
O154   O     0.91936   0.24978   0.15840   0.00000  Uiso   1.00
O155   O     0.82720   0.22991   0.30163   0.00000  Uiso   1.00
O156   O     0.99828   0.48985   0.23001   0.00000  Uiso   1.00
O157   O     0.90612   0.46998   0.37324   0.00000  Uiso   1.00
O158   O     0.88884   0.25762   0.01158   0.00000  Uiso   1.00
O159   O     0.79667   0.23775   0.15481   0.00000  Uiso   1.00
O160   O     0.96776   0.49768   0.08320   0.00000  Uiso   1.00
O161   O     0.87559   0.47781   0.22642   0.00000  Uiso   1.00
O162   O     0.95451   0.21788   0.29804   0.00000  Uiso   1.00
O163   O     0.78343   0.45794   0.36965   0.00000  Uiso   1.00
O164   O     0.89768   0.15686   0.09241   0.00000  Uiso   1.00
O165   O     0.80552   0.13699   0.23564   0.00000  Uiso   1.00
O166   O     0.97660   0.39693   0.16402   0.00000  Uiso   1.00
O167   O     0.88444   0.37705   0.30725   0.00000  Uiso   1.00
O168   O     0.96336   0.11712   0.37886   0.00000  Uiso   1.00
Bi169  Bi    0.14629   0.96879  -0.00000   0.00000  Uiso   1.00
Bi170  Bi    0.22521   0.70886   0.07161   0.00000  Uiso   1.00
Bi171  Bi    0.05413   0.94892   0.14323   0.00000  Uiso   1.00
Bi172  Bi    0.13305   0.68899   0.21484   0.00000  Uiso   1.00
Bi173  Bi    0.21196   0.92905   0.28645   0.00000  Uiso   1.00
Bi174  Bi    0.00510   1.05311   0.02515   0.00000  Uiso   1.00
Bi175  Bi    0.08402   0.79317   0.09676   0.00000  Uiso   1.00
Bi176  Bi    0.16294   1.03324   0.16838   0.00000  Uiso   1.00
Bi177  Bi    0.07078   1.01336   0.31161   0.00000  Uiso   1.00
Bi178  Bi    0.24186   0.77330   0.23999   0.00000  Uiso   1.00
C179   C     0.11364   0.63891   0.05075   0.00000  Uiso   1.00
C180   C     0.02147   0.61903   0.19397   0.00000  Uiso   1.00
C181   C     0.19255   0.87897   0.12236   0.00000  Uiso   1.00
C182   C     0.10039   0.85910   0.26559   0.00000  Uiso   1.00
C183   C     0.17931   0.59916   0.33720   0.00000  Uiso   1.00
O184   O     0.12221   0.59424   0.03742   0.00000  Uiso   1.00
O185   O     0.03005   0.57436   0.18065   0.00000  Uiso   1.00
O186   O     0.20113   0.83430   0.10903   0.00000  Uiso   1.00
O187   O     0.10897   0.81443   0.25226   0.00000  Uiso   1.00
O188   O     0.18789   0.55449   0.32387   0.00000  Uiso   1.00
O189   O     0.07084   0.66654   0.02268   0.00000  Uiso   1.00
O190   O    -0.02132   0.64666   0.16591   0.00000  Uiso   1.00
O191   O     0.14976   0.90660   0.09430   0.00000  Uiso   1.00
O192   O     0.05760   0.88673   0.23752   0.00000  Uiso   1.00
O193   O     0.13652   0.62679   0.30914   0.00000  Uiso   1.00
O194   O     0.01153   0.76966   0.01517   0.00000  Uiso   1.00
O195   O     0.09044   1.00972   0.08679   0.00000  Uiso   1.00
O196   O     0.16936   0.74978   0.15840   0.00000  Uiso   1.00
O197   O     0.07720   0.72991   0.30163   0.00000  Uiso   1.00
O198   O     0.24828   0.98985   0.23001   0.00000  Uiso   1.00
O199   O     0.15612   0.96998   0.37324   0.00000  Uiso   1.00
O200   O     0.13884   0.75762   0.01158   0.00000  Uiso   1.00
O201   O     0.04667   0.73775   0.15481   0.00000  Uiso   1.00
O202   O     0.21776   0.99768   0.08320   0.00000  Uiso   1.00
O203   O     0.12559   0.97781   0.22642   0.00000  Uiso   1.00
O204   O     0.20451   0.71788   0.29804   0.00000  Uiso   1.00
O205   O     0.03343   0.95794   0.36965   0.00000  Uiso   1.00
O206   O     0.14768   0.65686   0.09241   0.00000  Uiso   1.00
O207   O     0.05552   0.63699   0.23564   0.00000  Uiso   1.00
O208   O     0.22660   0.89693   0.16402   0.00000  Uiso   1.00
O209   O     0.13444   0.87705   0.30725   0.00000  Uiso   1.00
O210   O     0.21336   0.61712   0.37886   0.00000  Uiso   1.00
Bi211  Bi    0.39629   0.96879  -0.00000   0.00000  Uiso   1.00
Bi212  Bi    0.47521   0.70886   0.07161   0.00000  Uiso   1.00
Bi213  Bi    0.30413   0.94892   0.14323   0.00000  Uiso   1.00
Bi214  Bi    0.38305   0.68899   0.21484   0.00000  Uiso   1.00
Bi215  Bi    0.46196   0.92905   0.28645   0.00000  Uiso   1.00
Bi216  Bi    0.25510   1.05311   0.02515   0.00000  Uiso   1.00
Bi217  Bi    0.33402   0.79317   0.09676   0.00000  Uiso   1.00
Bi218  Bi    0.41294   1.03324   0.16838   0.00000  Uiso   1.00
Bi219  Bi    0.32078   1.01336   0.31161   0.00000  Uiso   1.00
Bi220  Bi    0.49186   0.77330   0.23999   0.00000  Uiso   1.00
C221   C     0.36364   0.63891   0.05075   0.00000  Uiso   1.00
C222   C     0.27147   0.61903   0.19397   0.00000  Uiso   1.00
C223   C     0.44255   0.87897   0.12236   0.00000  Uiso   1.00
C224   C     0.35039   0.85910   0.26559   0.00000  Uiso   1.00
C225   C     0.42931   0.59916   0.33720   0.00000  Uiso   1.00
O226   O     0.37221   0.59424   0.03742   0.00000  Uiso   1.00
O227   O     0.28005   0.57436   0.18065   0.00000  Uiso   1.00
O228   O     0.45113   0.83430   0.10903   0.00000  Uiso   1.00
O229   O     0.35897   0.81443   0.25226   0.00000  Uiso   1.00
O230   O     0.43789   0.55449   0.32387   0.00000  Uiso   1.00
O231   O     0.32084   0.66654   0.02268   0.00000  Uiso   1.00
O232   O     0.22868   0.64666   0.16591   0.00000  Uiso   1.00
O233   O     0.39976   0.90660   0.09430   0.00000  Uiso   1.00
O234   O     0.30760   0.88673   0.23752   0.00000  Uiso   1.00
O235   O     0.38652   0.62679   0.30914   0.00000  Uiso   1.00
O236   O     0.26153   0.76966   0.01517   0.00000  Uiso   1.00
O237   O     0.34044   1.00972   0.08679   0.00000  Uiso   1.00
O238   O     0.41936   0.74978   0.15840   0.00000  Uiso   1.00
O239   O     0.32720   0.72991   0.30163   0.00000  Uiso   1.00
O240   O     0.49828   0.98985   0.23001   0.00000  Uiso   1.00
O241   O     0.40612   0.96998   0.37324   0.00000  Uiso   1.00
O242   O     0.38884   0.75762   0.01158   0.00000  Uiso   1.00
O243   O     0.29667   0.73775   0.15481   0.00000  Uiso   1.00
O244   O     0.46776   0.99768   0.08320   0.00000  Uiso   1.00
O245   O     0.37559   0.97781   0.22642   0.00000  Uiso   1.00
O246   O     0.45451   0.71788   0.29804   0.00000  Uiso   1.00
O247   O     0.28343   0.95794   0.36965   0.00000  Uiso   1.00
O248   O     0.39768   0.65686   0.09241   0.00000  Uiso   1.00
O249   O     0.30552   0.63699   0.23564   0.00000  Uiso   1.00
O250   O     0.47660   0.89693   0.16402   0.00000  Uiso   1.00
O251   O     0.38444   0.87705   0.30725   0.00000  Uiso   1.00
O252   O     0.46336   0.61712   0.37886   0.00000  Uiso   1.00
Bi253  Bi    0.64629   0.96879  -0.00000   0.00000  Uiso   1.00
Bi254  Bi    0.72521   0.70886   0.07161   0.00000  Uiso   1.00
Bi255  Bi    0.55413   0.94892   0.14323   0.00000  Uiso   1.00
Bi256  Bi    0.63305   0.68899   0.21484   0.00000  Uiso   1.00
Bi257  Bi    0.71196   0.92905   0.28645   0.00000  Uiso   1.00
Bi258  Bi    0.50510   1.05311   0.02515   0.00000  Uiso   1.00
Bi259  Bi    0.58402   0.79317   0.09676   0.00000  Uiso   1.00
Bi260  Bi    0.66294   1.03324   0.16838   0.00000  Uiso   1.00
Bi261  Bi    0.57078   1.01336   0.31161   0.00000  Uiso   1.00
Bi262  Bi    0.74186   0.77330   0.23999   0.00000  Uiso   1.00
C263   C     0.61364   0.63891   0.05075   0.00000  Uiso   1.00
C264   C     0.52147   0.61903   0.19397   0.00000  Uiso   1.00
C265   C     0.69255   0.87897   0.12236   0.00000  Uiso   1.00
C266   C     0.60039   0.85910   0.26559   0.00000  Uiso   1.00
C267   C     0.67931   0.59916   0.33720   0.00000  Uiso   1.00
O268   O     0.62221   0.59424   0.03742   0.00000  Uiso   1.00
O269   O     0.53005   0.57436   0.18065   0.00000  Uiso   1.00
O270   O     0.70113   0.83430   0.10903   0.00000  Uiso   1.00
O271   O     0.60897   0.81443   0.25226   0.00000  Uiso   1.00
O272   O     0.68789   0.55449   0.32387   0.00000  Uiso   1.00
O273   O     0.57084   0.66654   0.02268   0.00000  Uiso   1.00
O274   O     0.47868   0.64666   0.16591   0.00000  Uiso   1.00
O275   O     0.64976   0.90660   0.09430   0.00000  Uiso   1.00
O276   O     0.55760   0.88673   0.23752   0.00000  Uiso   1.00
O277   O     0.63652   0.62679   0.30914   0.00000  Uiso   1.00
O278   O     0.51153   0.76966   0.01517   0.00000  Uiso   1.00
O279   O     0.59044   1.00972   0.08679   0.00000  Uiso   1.00
O280   O     0.66936   0.74978   0.15840   0.00000  Uiso   1.00
O281   O     0.57720   0.72991   0.30163   0.00000  Uiso   1.00
O282   O     0.74828   0.98985   0.23001   0.00000  Uiso   1.00
O283   O     0.65612   0.96998   0.37324   0.00000  Uiso   1.00
O284   O     0.63884   0.75762   0.01158   0.00000  Uiso   1.00
O285   O     0.54667   0.73775   0.15481   0.00000  Uiso   1.00
O286   O     0.71776   0.99768   0.08320   0.00000  Uiso   1.00
O287   O     0.62559   0.97781   0.22642   0.00000  Uiso   1.00
O288   O     0.70451   0.71788   0.29804   0.00000  Uiso   1.00
O289   O     0.53343   0.95794   0.36965   0.00000  Uiso   1.00
O290   O     0.64768   0.65686   0.09241   0.00000  Uiso   1.00
O291   O     0.55552   0.63699   0.23564   0.00000  Uiso   1.00
O292   O     0.72660   0.89693   0.16402   0.00000  Uiso   1.00
O293   O     0.63444   0.87705   0.30725   0.00000  Uiso   1.00
O294   O     0.71336   0.61712   0.37886   0.00000  Uiso   1.00
Bi295  Bi    0.89629   0.96879  -0.00000   0.00000  Uiso   1.00
Bi296  Bi    0.97521   0.70886   0.07161   0.00000  Uiso   1.00
Bi297  Bi    0.80413   0.94892   0.14323   0.00000  Uiso   1.00
Bi298  Bi    0.88305   0.68899   0.21484   0.00000  Uiso   1.00
Bi299  Bi    0.96196   0.92905   0.28645   0.00000  Uiso   1.00
Bi300  Bi    0.75510   1.05311   0.02515   0.00000  Uiso   1.00
Bi301  Bi    0.83402   0.79317   0.09676   0.00000  Uiso   1.00
Bi302  Bi    0.91294   1.03324   0.16838   0.00000  Uiso   1.00
Bi303  Bi    0.82078   1.01336   0.31161   0.00000  Uiso   1.00
Bi304  Bi    0.99186   0.77330   0.23999   0.00000  Uiso   1.00
C305   C     0.86364   0.63891   0.05075   0.00000  Uiso   1.00
C306   C     0.77147   0.61903   0.19397   0.00000  Uiso   1.00
C307   C     0.94255   0.87897   0.12236   0.00000  Uiso   1.00
C308   C     0.85039   0.85910   0.26559   0.00000  Uiso   1.00
C309   C     0.92931   0.59916   0.33720   0.00000  Uiso   1.00
O310   O     0.87221   0.59424   0.03742   0.00000  Uiso   1.00
O311   O     0.78005   0.57436   0.18065   0.00000  Uiso   1.00
O312   O     0.95113   0.83430   0.10903   0.00000  Uiso   1.00
O313   O     0.85897   0.81443   0.25226   0.00000  Uiso   1.00
O314   O     0.93789   0.55449   0.32387   0.00000  Uiso   1.00
O315   O     0.82084   0.66654   0.02268   0.00000  Uiso   1.00
O316   O     0.72868   0.64666   0.16591   0.00000  Uiso   1.00
O317   O     0.89976   0.90660   0.09430   0.00000  Uiso   1.00
O318   O     0.80760   0.88673   0.23752   0.00000  Uiso   1.00
O319   O     0.88652   0.62679   0.30914   0.00000  Uiso   1.00
O320   O     0.76153   0.76966   0.01517   0.00000  Uiso   1.00
O321   O     0.84044   1.00972   0.08679   0.00000  Uiso   1.00
O322   O     0.91936   0.74978   0.15840   0.00000  Uiso   1.00
O323   O     0.82720   0.72991   0.30163   0.00000  Uiso   1.00
O324   O     0.99828   0.98985   0.23001   0.00000  Uiso   1.00
O325   O     0.90612   0.96998   0.37324   0.00000  Uiso   1.00
O326   O     0.88884   0.75762   0.01158   0.00000  Uiso   1.00
O327   O     0.79667   0.73775   0.15481   0.00000  Uiso   1.00
O328   O     0.96776   0.99768   0.08320   0.00000  Uiso   1.00
O329   O     0.87559   0.97781   0.22642   0.00000  Uiso   1.00
O330   O     0.95451   0.71788   0.29804   0.00000  Uiso   1.00
O331   O     0.78343   0.95794   0.36965   0.00000  Uiso   1.00
O332   O     0.89768   0.65686   0.09241   0.00000  Uiso   1.00
O333   O     0.80552   0.63699   0.23564   0.00000  Uiso   1.00
O334   O     0.97660   0.89693   0.16402   0.00000  Uiso   1.00
O335   O     0.88444   0.87705   0.30725   0.00000  Uiso   1.00
O336   O     0.96336   0.61712   0.37886   0.00000  Uiso   1.00
loop_
_geom_bond_atom_site_label_1
_geom_bond_atom_site_label_2
_geom_bond_distance
_geom_bond_site_symmetry_2
_ccdc_geom_bond_type
Bi1    O27     2.323   .     S
Bi2    O28     2.323   .     S
Bi2    O68     2.323   .     S
Bi3    O156    2.323   1_455 S
Bi3    O27     2.323   .     S
Bi4    O29     2.323   .     S
Bi4    O28     2.323   .     S
Bi5    O31     2.323   .     S
Bi5    O30     2.323   .     S
Bi6    O27     2.475   .     S
Bi6    O160    2.228   1_455 S
Bi7    O26     2.475   .     S
Bi7    O28     2.475   .     S
Bi7    O32     2.228   .     S
Bi7    O33     2.228   .     S
Bi8    O27     2.475   .     S
Bi8    O30     2.475   .     S
Bi8    O34     2.228   .     S
Bi8    O35     2.228   .     S
Bi9    O156    2.475   1_455 S
Bi9    O31     2.475   .     S
Bi9    O35     2.228   .     S
Bi9    O37     2.228   .     S
Bi10   O28     2.475   .     S
Bi10   O71     2.475   .     S
Bi10   O75     2.228   .     S
Bi10   O36     2.228   .     S
C11    O16     1.291   .     S
C11    O21     1.290   .     S
C11    O38     1.290   .     D
C12    O17     1.291   .     S
C12    O22     1.290   .     S
C12    O39     1.290   .     D
C13    O18     1.291   .     S
C13    O23     1.290   .     S
C13    O40     1.290   .     D
C14    O19     1.291   .     S
C14    O24     1.290   .     S
C14    O41     1.290   .     D
C15    O20     1.291   .     S
C15    O25     1.290   .     S
C15    O42     1.290   .     D
O26    Bi128   2.323   1_455 S
O29    Bi136   2.475   1_455 S
O30    Bi45    2.323   .     S
O30    Bi51    2.475   .     S
O33    Bi136   2.228   1_455 S
O34    Bi48    2.228   .     S
Bi43   O69     2.323   .     S
Bi44   O70     2.323   .     S
Bi44   O110    2.323   .     S
Bi45   O69     2.323   .     S
Bi46   O71     2.323   .     S
Bi46   O70     2.323   .     S
Bi47   O73     2.323   .     S
Bi47   O72     2.323   .     S
Bi48   O69     2.475   .     S
Bi49   O68     2.475   .     S
Bi49   O70     2.475   .     S
Bi49   O74     2.228   .     S
Bi49   O75     2.228   .     S
Bi50   O69     2.475   .     S
Bi50   O72     2.475   .     S
Bi50   O76     2.228   .     S
Bi50   O77     2.228   .     S
Bi51   O73     2.475   .     S
Bi51   O77     2.228   .     S
Bi51   O79     2.228   .     S
Bi52   O70     2.475   .     S
Bi52   O113    2.475   .     S
Bi52   O117    2.228   .     S
Bi52   O78     2.228   .     S
C53    O58     1.291   .     S
C53    O63     1.290   .     S
C53    O80     1.290   .     D
C54    O59     1.291   .     S
C54    O64     1.290   .     S
C54    O81     1.290   .     D
C55    O60     1.291   .     S
C55    O65     1.290   .     S
C55    O82     1.290   .     D
C56    O61     1.291   .     S
C56    O66     1.290   .     S
C56    O83     1.290   .     D
C57    O62     1.291   .     S
C57    O67     1.290   .     S
C57    O84     1.290   .     D
O72    Bi87    2.323   .     S
O72    Bi93    2.475   .     S
O76    Bi90    2.228   .     S
Bi85   O111    2.323   .     S
Bi86   O112    2.323   .     S
Bi86   O152    2.323   .     S
Bi87   O111    2.323   .     S
Bi88   O113    2.323   .     S
Bi88   O112    2.323   .     S
Bi89   O115    2.323   .     S
Bi89   O114    2.323   .     S
Bi90   O111    2.475   .     S
Bi91   O110    2.475   .     S
Bi91   O112    2.475   .     S
Bi91   O116    2.228   .     S
Bi91   O117    2.228   .     S
Bi92   O111    2.475   .     S
Bi92   O114    2.475   .     S
Bi92   O118    2.228   .     S
Bi92   O119    2.228   .     S
Bi93   O115    2.475   .     S
Bi93   O119    2.228   .     S
Bi93   O121    2.228   .     S
Bi94   O112    2.475   .     S
Bi94   O155    2.475   .     S
Bi94   O159    2.228   .     S
Bi94   O120    2.228   .     S
C95    O100    1.291   .     S
C95    O105    1.290   .     S
C95    O122    1.290   .     D
C96    O101    1.291   .     S
C96    O106    1.290   .     S
C96    O123    1.290   .     D
C97    O102    1.291   .     S
C97    O107    1.290   .     S
C97    O124    1.290   .     D
C98    O103    1.291   .     S
C98    O108    1.290   .     S
C98    O125    1.290   .     D
C99    O104    1.291   .     S
C99    O109    1.290   .     S
C99    O126    1.290   .     D
O114   Bi129   2.323   .     S
O114   Bi135   2.475   .     S
O118   Bi132   2.228   .     S
Bi127  O153    2.323   .     S
Bi128  O154    2.323   .     S
Bi128  O26     2.323   1_655 S
Bi129  O153    2.323   .     S
Bi130  O155    2.323   .     S
Bi130  O154    2.323   .     S
Bi131  O157    2.323   .     S
Bi131  O156    2.323   .     S
Bi132  O153    2.475   .     S
Bi133  O152    2.475   .     S
Bi133  O154    2.475   .     S
Bi133  O158    2.228   .     S
Bi133  O159    2.228   .     S
Bi134  O153    2.475   .     S
Bi134  O156    2.475   .     S
Bi134  O160    2.228   .     S
Bi134  O161    2.228   .     S
Bi135  O157    2.475   .     S
Bi135  O161    2.228   .     S
Bi135  O163    2.228   .     S
Bi136  O154    2.475   .     S
Bi136  O29     2.475   1_655 S
Bi136  O33     2.228   1_655 S
Bi136  O162    2.228   .     S
C137   O142    1.291   .     S
C137   O147    1.290   .     S
C137   O164    1.290   .     D
C138   O143    1.291   .     S
C138   O148    1.290   .     S
C138   O165    1.290   .     D
C139   O144    1.291   .     S
C139   O149    1.290   .     S
C139   O166    1.290   .     D
C140   O145    1.291   .     S
C140   O150    1.290   .     S
C140   O167    1.290   .     D
C141   O146    1.291   .     S
C141   O151    1.290   .     S
C141   O168    1.290   .     D
O156   Bi3     2.323   1_655 S
O156   Bi9     2.475   1_655 S
O160   Bi6     2.228   1_655 S
Bi169  O195    2.323   .     S
Bi170  O196    2.323   .     S
Bi170  O236    2.323   .     S
Bi171  O324    2.323   1_455 S
Bi171  O195    2.323   .     S
Bi172  O197    2.323   .     S
Bi172  O196    2.323   .     S
Bi173  O199    2.323   .     S
Bi173  O198    2.323   .     S
Bi174  O195    2.475   .     S
Bi174  O328    2.228   1_455 S
Bi175  O194    2.475   .     S
Bi175  O196    2.475   .     S
Bi175  O200    2.228   .     S
Bi175  O201    2.228   .     S
Bi176  O195    2.475   .     S
Bi176  O198    2.475   .     S
Bi176  O202    2.228   .     S
Bi176  O203    2.228   .     S
Bi177  O324    2.475   1_455 S
Bi177  O199    2.475   .     S
Bi177  O203    2.228   .     S
Bi177  O205    2.228   .     S
Bi178  O196    2.475   .     S
Bi178  O239    2.475   .     S
Bi178  O243    2.228   .     S
Bi178  O204    2.228   .     S
C179   O184    1.291   .     S
C179   O189    1.290   .     S
C179   O206    1.290   .     D
C180   O185    1.291   .     S
C180   O190    1.290   .     S
C180   O207    1.290   .     D
C181   O186    1.291   .     S
C181   O191    1.290   .     S
C181   O208    1.290   .     D
C182   O187    1.291   .     S
C182   O192    1.290   .     S
C182   O209    1.290   .     D
C183   O188    1.291   .     S
C183   O193    1.290   .     S
C183   O210    1.290   .     D
O194   Bi296   2.323   1_455 S
O197   Bi304   2.475   1_455 S
O198   Bi213   2.323   .     S
O198   Bi219   2.475   .     S
O201   Bi304   2.228   1_455 S
O202   Bi216   2.228   .     S
Bi211  O237    2.323   .     S
Bi212  O238    2.323   .     S
Bi212  O278    2.323   .     S
Bi213  O237    2.323   .     S
Bi214  O239    2.323   .     S
Bi214  O238    2.323   .     S
Bi215  O241    2.323   .     S
Bi215  O240    2.323   .     S
Bi216  O237    2.475   .     S
Bi217  O236    2.475   .     S
Bi217  O238    2.475   .     S
Bi217  O242    2.228   .     S
Bi217  O243    2.228   .     S
Bi218  O237    2.475   .     S
Bi218  O240    2.475   .     S
Bi218  O244    2.228   .     S
Bi218  O245    2.228   .     S
Bi219  O241    2.475   .     S
Bi219  O245    2.228   .     S
Bi219  O247    2.228   .     S
Bi220  O238    2.475   .     S
Bi220  O281    2.475   .     S
Bi220  O285    2.228   .     S
Bi220  O246    2.228   .     S
C221   O226    1.291   .     S
C221   O231    1.290   .     S
C221   O248    1.290   .     D
C222   O227    1.291   .     S
C222   O232    1.290   .     S
C222   O249    1.290   .     D
C223   O228    1.291   .     S
C223   O233    1.290   .     S
C223   O250    1.290   .     D
C224   O229    1.291   .     S
C224   O234    1.290   .     S
C224   O251    1.290   .     D
C225   O230    1.291   .     S
C225   O235    1.290   .     S
C225   O252    1.290   .     D
O240   Bi255   2.323   .     S
O240   Bi261   2.475   .     S
O244   Bi258   2.228   .     S
Bi253  O279    2.323   .     S
Bi254  O280    2.323   .     S
Bi254  O320    2.323   .     S
Bi255  O279    2.323   .     S
Bi256  O281    2.323   .     S
Bi256  O280    2.323   .     S
Bi257  O283    2.323   .     S
Bi257  O282    2.323   .     S
Bi258  O279    2.475   .     S
Bi259  O278    2.475   .     S
Bi259  O280    2.475   .     S
Bi259  O284    2.228   .     S
Bi259  O285    2.228   .     S
Bi260  O279    2.475   .     S
Bi260  O282    2.475   .     S
Bi260  O286    2.228   .     S
Bi260  O287    2.228   .     S
Bi261  O283    2.475   .     S
Bi261  O287    2.228   .     S
Bi261  O289    2.228   .     S
Bi262  O280    2.475   .     S
Bi262  O323    2.475   .     S
Bi262  O327    2.228   .     S
Bi262  O288    2.228   .     S
C263   O268    1.291   .     S
C263   O273    1.290   .     S
C263   O290    1.290   .     D
C264   O269    1.291   .     S
C264   O274    1.290   .     S
C264   O291    1.290   .     D
C265   O270    1.291   .     S
C265   O275    1.290   .     S
C265   O292    1.290   .     D
C266   O271    1.291   .     S
C266   O276    1.290   .     S
C266   O293    1.290   .     D
C267   O272    1.291   .     S
C267   O277    1.290   .     S
C267   O294    1.290   .     D
O282   Bi297   2.323   .     S
O282   Bi303   2.475   .     S
O286   Bi300   2.228   .     S
Bi295  O321    2.323   .     S
Bi296  O322    2.323   .     S
Bi296  O194    2.323   1_655 S
Bi297  O321    2.323   .     S
Bi298  O323    2.323   .     S
Bi298  O322    2.323   .     S
Bi299  O325    2.323   .     S
Bi299  O324    2.323   .     S
Bi300  O321    2.475   .     S
Bi301  O320    2.475   .     S
Bi301  O322    2.475   .     S
Bi301  O326    2.228   .     S
Bi301  O327    2.228   .     S
Bi302  O321    2.475   .     S
Bi302  O324    2.475   .     S
Bi302  O328    2.228   .     S
Bi302  O329    2.228   .     S
Bi303  O325    2.475   .     S
Bi303  O329    2.228   .     S
Bi303  O331    2.228   .     S
Bi304  O322    2.475   .     S
Bi304  O197    2.475   1_655 S
Bi304  O201    2.228   1_655 S
Bi304  O330    2.228   .     S
C305   O310    1.291   .     S
C305   O315    1.290   .     S
C305   O332    1.290   .     D
C306   O311    1.291   .     S
C306   O316    1.290   .     S
C306   O333    1.290   .     D
C307   O312    1.291   .     S
C307   O317    1.290   .     S
C307   O334    1.290   .     D
C308   O313    1.291   .     S
C308   O318    1.290   .     S
C308   O335    1.290   .     D
C309   O314    1.291   .     S
C309   O319    1.290   .     S
C309   O336    1.290   .     D
O324   Bi171   2.323   1_655 S
O324   Bi177   2.475   1_655 S
O328   Bi174   2.228   1_655 S
