data_image0
_chemical_formula_structural       Bi8C5O26BiOBiCO2
_chemical_formula_sum              "Bi10 C6 O29"
_cell_length_a       5.8061
_cell_length_b       14.3387
_cell_length_c       19.3194
_cell_angle_alpha    90
_cell_angle_beta     90
_cell_angle_gamma    81.0568

_space_group_name_H-M_alt    "P 1"
_space_group_IT_number       1

loop_
  _space_group_symop_operation_xyz
  'x, y, z'

loop_
  _atom_site_type_symbol
  _atom_site_label
  _atom_site_symmetry_multiplicity
  _atom_site_fract_x
  _atom_site_fract_y
  _atom_site_fract_z
  _atom_site_occupancy
  Bi  Bi1       1.0  0.58516  0.93759  0.00000  1.0000
  Bi  Bi2       1.0  0.90083  0.41771  0.07161  1.0000
  Bi  Bi3       1.0  0.21651  0.89784  0.14323  1.0000
  Bi  Bi4       1.0  0.84786  0.85810  0.28645  1.0000
  Bi  Bi5       1.0  0.02042  0.10621  0.02515  1.0000
  Bi  Bi6       1.0  0.33609  0.58634  0.09676  1.0000
  Bi  Bi7       1.0  0.65177  0.06647  0.16838  1.0000
  Bi  Bi8       1.0  0.28312  0.02673  0.31161  1.0000
  C   C1        1.0  0.45454  0.27781  0.05075  1.0000
  C   C2        1.0  0.08589  0.23807  0.19397  1.0000
  C   C3        1.0  0.77022  0.75794  0.12236  1.0000
  C   C4        1.0  0.40157  0.71820  0.26559  1.0000
  C   C5        1.0  0.71724  0.19833  0.33720  1.0000
  O   O1        1.0  0.48884  0.18847  0.03742  1.0000
  O   O2        1.0  0.12019  0.14873  0.18065  1.0000
  O   O3        1.0  0.80452  0.66860  0.10903  1.0000
  O   O4        1.0  0.43587  0.62886  0.25226  1.0000
  O   O5        1.0  0.75154  0.10899  0.32387  1.0000
  O   O6        1.0  0.28336  0.33307  0.02268  1.0000
  O   O7        1.0  0.91471  0.29333  0.16591  1.0000
  O   O8        1.0  0.59904  0.81320  0.09430  1.0000
  O   O9        1.0  0.23039  0.77346  0.23752  1.0000
  O   O10       1.0  0.54607  0.25359  0.30914  1.0000
  O   O11       1.0  0.04610  0.53931  0.01517  1.0000
  O   O12       1.0  0.36178  0.01944  0.08679  1.0000
  O   O13       1.0  0.67745  0.49957  0.15840  1.0000
  O   O14       1.0  0.30881  0.45983  0.30163  1.0000
  O   O15       1.0  0.99313  0.97970  0.23001  1.0000
  O   O16       1.0  0.62448  0.93996  0.37324  1.0000
  O   O17       1.0  0.55535  0.51523  0.01158  1.0000
  O   O18       1.0  0.18670  0.47549  0.15481  1.0000
  O   O19       1.0  0.87102  0.99536  0.08320  1.0000
  O   O20       1.0  0.50237  0.95562  0.22642  1.0000
  O   O21       1.0  0.13372  0.91588  0.36965  1.0000
  O   O22       1.0  0.59072  0.31372  0.09241  1.0000
  O   O23       1.0  0.22207  0.27398  0.23564  1.0000
  O   O24       1.0  0.90639  0.79385  0.16402  1.0000
  O   O25       1.0  0.53775  0.75411  0.30725  1.0000
  O   O26       1.0  0.85342  0.23424  0.37886  1.0000
  Bi  Bi9       1.0  0.97382  0.55133  0.23752  1.0000
  O   O27       1.0  0.81805  0.43575  0.29804  1.0000
  Bi  Bi10      1.0  0.54084  0.38101  0.21573  1.0000
  C   C6        1.0  0.93262  0.37144  0.42065  1.0000
  O   O28       1.0  0.10101  0.30236  0.42986  1.0000
  O   O29       1.0  0.81287  0.40941  0.47248  1.0000
