data_image0
_chemical_formula_structural       O3
_chemical_formula_sum              "O3"
_cell_length_a       5.8061
_cell_length_b       14.3387
_cell_length_c       20.2647
_cell_angle_alpha    90
_cell_angle_beta     90
_cell_angle_gamma    81.0568

_space_group_name_H-M_alt    "P 1"
_space_group_IT_number       1

loop_
  _space_group_symop_operation_xyz
  'x, y, z'

loop_
  _atom_site_type_symbol
  _atom_site_label
  _atom_site_symmetry_multiplicity
  _atom_site_fract_x
  _atom_site_fract_y
  _atom_site_fract_z
  _atom_site_occupancy
  O   O1        1.0  0.30881  0.45983  0.33420  1.0000
  O   O2        1.0  0.53775  0.75411  0.33956  1.0000
  O   O3        1.0  0.85342  0.23424  0.40784  1.0000
