data_image0
_chemical_formula_structural       OBiOCBiO4BiOCBiO4BiOCBiO4BiOCBiO4BiOCBiO4BiOCO
_chemical_formula_sum              "O28 Bi11 C6"
_cell_length_a       5.8061
_cell_length_b       14.3387
_cell_length_c       20.2647
_cell_angle_alpha    90
_cell_angle_beta     90
_cell_angle_gamma    81.0568

_space_group_name_H-M_alt    "P 1"
_space_group_IT_number       1

loop_
  _space_group_symop_operation_xyz
  'x, y, z'

loop_
  _atom_site_type_symbol
  _atom_site_label
  _atom_site_symmetry_multiplicity
  _atom_site_fract_x
  _atom_site_fract_y
  _atom_site_fract_z
  _atom_site_occupancy
  O   O27       1.0  0.75154  0.10899  0.35541  1.0000
  C   C6        1.0  0.71724  0.19833  0.36812  1.0000
  O   O28       1.0  0.85342  0.23424  0.40784  1.0000
