data_image0
_chemical_formula_structural       BiOBiCO2BiOBi
_chemical_formula_sum              "Bi4 O4 C1"
_cell_length_a       10
_cell_length_b       10
_cell_length_c       10
_cell_angle_alpha    90
_cell_angle_beta     90
_cell_angle_gamma    90

_space_group_name_H-M_alt    "P 1"
_space_group_IT_number       1

loop_
  _space_group_symop_operation_xyz
  'x, y, z'

loop_
  _atom_site_type_symbol
  _atom_site_label
  _atom_site_symmetry_multiplicity
  _atom_site_fract_x
  _atom_site_fract_y
  _atom_site_fract_z
  _atom_site_occupancy
  Bi  Bi1       1.0  0.68958  0.39285  0.24403  1.0000
  O   O1        1.0  0.54921  0.50908  0.38812  1.0000
  Bi  Bi2       1.0  0.38592  0.61968  0.23852  1.0000
  C   C1        1.0  0.55939  0.51405  0.55559  1.0000
  O   O2        1.0  0.48354  0.43505  0.62403  1.0000
  O   O3        1.0  0.64703  0.58841  0.61422  1.0000
  Bi  Bi3       1.0  0.48430  0.57353  0.60168  1.0000
  O   O4        1.0  0.54921  0.50908  0.38812  1.0000
  Bi  Bi4       1.0  0.38592  0.61968  0.23852  1.0000
