data_NO2
_audit_creation_date              2021-07-28
_audit_creation_method            'Materials Studio'
_symmetry_space_group_name_H-M    'P1'
_symmetry_Int_Tables_number       1
_symmetry_cell_setting            triclinic
loop_
_symmetry_equiv_pos_as_xyz
  x,y,z
_cell_length_a                    12.0000
_cell_length_b                    12.0000
_cell_length_c                    12.0000
_cell_angle_alpha                 90.0000
_cell_angle_beta                  90.0000
_cell_angle_gamma                 90.0000
loop_
_atom_site_label
_atom_site_type_symbol
_atom_site_fract_x
_atom_site_fract_y
_atom_site_fract_z
_atom_site_U_iso_or_equiv
_atom_site_adp_type
_atom_site_occupancy
O9     O     0.56673   0.45967   0.47652   8.00000  Uiso   1.00
H11    H     0.29382   0.13789   0.50530  10.00000  Uiso   1.00
O13    O     0.37976   0.33394   0.50520  12.00000  Uiso   1.00
Co16   Co    0.40112   0.49153   0.56728  15.00000  Uiso   1.00
C19    C     0.59449   0.42374   0.57146  18.00000  Uiso   1.00
C21    C     0.28872   0.17553   0.58833  20.00000  Uiso   1.00
C23    C     0.31581   0.29788   0.58396  22.00000  Uiso   1.00
H24    H     0.76670   0.39790   0.53144  23.00000  Uiso   1.00
H25    H     0.20593   0.16269   0.62464  24.00000  Uiso   1.00
H26    H     0.69593   0.27934   0.58555  25.00000  Uiso   1.00
C29    C     0.70539   0.37015   0.59313  28.00000  Uiso   1.00
H30    H     0.34995   0.13441   0.64270  29.00000  Uiso   1.00
O31    O     0.52424   0.43206   0.65294  30.00000  Uiso   1.00
O33    O     0.27927   0.36485   0.65597  32.00000  Uiso   1.00
H35    H     0.73383   0.38870   0.67791  34.00000  Uiso   1.00
loop_
_geom_bond_atom_site_label_1
_geom_bond_atom_site_label_2
_geom_bond_distance
_geom_bond_site_symmetry_2
_ccdc_geom_bond_type
O9     C19     1.263   .     D
H11    C21     1.096   .     S
O13    Co16    2.049   .     S
O13    C23     1.292   .     S
Co16   O31     1.936   .     S
C19    C29     1.501   .     S
C19    O31     1.295   .     S
C21    C23     1.505   .     S
C21    H25     1.096   .     S
C21    H30     1.100   .     S
C23    O33     1.259   .     D
H24    C29     1.096   .     S
H26    C29     1.099   .     S
C29    H35     1.096   .     S
