data_NO2-minus
_audit_creation_date              2022-02-08
_audit_creation_method            'Materials Studio'
_symmetry_space_group_name_H-M    'P1'
_symmetry_Int_Tables_number       1
_symmetry_cell_setting            triclinic
loop_
_symmetry_equiv_pos_as_xyz
  x,y,z
_cell_length_a                    12.0000
_cell_length_b                    12.0000
_cell_length_c                    12.0000
_cell_angle_alpha                 90.0000
_cell_angle_beta                  90.0000
_cell_angle_gamma                 90.0000
loop_
_atom_site_label
_atom_site_type_symbol
_atom_site_fract_x
_atom_site_fract_y
_atom_site_fract_z
_atom_site_U_iso_or_equiv
_atom_site_adp_type
_atom_site_occupancy
O9     O     0.47272   0.23688   0.40840   8.00000  Uiso   1.00
H11    H     0.36617   0.23831   0.81766  10.00000  Uiso   1.00
O13    O     0.36539   0.26952   0.60589  12.00000  Uiso   1.00
Co16   Co    0.34016   0.36290   0.46522  15.00000  Uiso   1.00
C19    C     0.53751   0.31296   0.44141  18.00000  Uiso   1.00
C21    C     0.37018   0.32739   0.79804  20.00000  Uiso   1.00
C23    C     0.34518   0.34790   0.67689  22.00000  Uiso   1.00
H24    H     0.68764   0.23535   0.38344  23.00000  Uiso   1.00
H25    H     0.31258   0.37475   0.85073  24.00000  Uiso   1.00
H26    H     0.68666   0.27146   0.52727  25.00000  Uiso   1.00
C29    C     0.69177   0.29903   0.44352  28.00000  Uiso   1.00
H30    H     0.45508   0.35718   0.81536  29.00000  Uiso   1.00
O31    O     0.53040   0.39826   0.45863  30.00000  Uiso   1.00
O33    O     0.30711   0.43976   0.64344  32.00000  Uiso   1.00
H35    H     0.70315   0.37863   0.42643  34.00000  Uiso   1.00
loop_
_geom_bond_atom_site_label_1
_geom_bond_atom_site_label_2
_geom_bond_distance
_geom_bond_site_symmetry_2
_ccdc_geom_bond_type
O9     C19     1.263   .     D
H11    C21     1.096   .     S
O13    Co16    2.049   .     S
O13    C23     1.292   .     S
Co16   O31     2.323   .     S
C19    C29     1.501   .     S
C19    O31     1.048   .     S
C21    C23     1.505   .     S
C21    H25     1.096   .     S
C21    H30     1.100   .     S
C23    O33     1.259   .     D
H24    C29     1.096   .     S
H26    C29     1.099   .     S
C29    H35     1.096   .     S
