data_NO2
_audit_creation_date              2013-05-06
_audit_creation_method            'Materials Studio'
_symmetry_space_group_name_H-M    'P1'
_symmetry_Int_Tables_number       1
_symmetry_cell_setting            triclinic
loop_
_symmetry_equiv_pos_as_xyz
  x,y,z
_cell_length_a                    12.000000072525288
_cell_length_b                    12.00000007252528800000
_cell_length_c                    12.00000007252528800000
_cell_angle_alpha                 90
_cell_angle_beta                  90
_cell_angle_gamma                 90
loop_
_atom_site_label
_atom_site_type_symbol
_atom_site_fract_x
_atom_site_fract_y
_atom_site_fract_z
_atom_site_U_iso_or_equiv
_atom_site_adp_type
_atom_site_occupancy
H1      H    0.2198568600    0.4085154499   0.4027083979    0    Uiso    1
H2      H    0.1394467908    0.5326916986   0.3780564691    1    Uiso    1
H3      H    0.2403179121    0.6895818269   0.3750456305    2    Uiso    1
H4      H    0.3585717481    0.8715588687   0.3837489708    3    Uiso    1
C5      C    0.1920675781    0.4880008628   0.4381914640    4    Uiso    1
C6      C    0.3021392397    0.6523683485   0.4309348316    5    Uiso    1
N7      N    0.2896749367    0.5523505414   0.4688176518    6    Uiso    1
C8      C    0.4172729991    0.8275965784   0.4372191427    7    Uiso    1
O9      O    0.5667270544    0.4596710944   0.4765188257    8    Uiso    1
H10      H    0.5278147706    0.9676339396   0.4594403110    9    Uiso    1
H11      H    0.2938167534    0.1378887615   0.5052967960    10    Uiso    1
C12      C    0.3984672037    0.7162401166   0.4658088907    11    Uiso    1
O13      O    0.3797595826    0.3339353470   0.5051963784    12    Uiso    1
C14      C    0.5113089449    0.8806041550   0.4794746746    13    Uiso    1
H15      H    0.1449322917    0.4697403888   0.5144697543    14    Uiso    1
Co16      Co    0.4011201952    0.4915316410   0.5672792838    15    Uiso    1
N17      N    0.4691345995    0.6593546723   0.5323014762    16    Uiso    1
C18      C    0.5836599036    0.8209705561   0.5481318909    17    Uiso    1
C19      C    0.5944901011    0.4237395808   0.5714593079    18    Uiso    1
C20      C    0.5592928039    0.7100219868   0.5726014671    19    Uiso    1
C21      C    0.2887224165    0.1755267705   0.5883250620    20    Uiso    1
H22      H    0.6579612791    0.8596324138   0.5830306607    21    Uiso    1
C23      C    0.3158112497    0.2978786846   0.5839571928    22    Uiso    1
H24      H    0.7667015900    0.3979005287   0.5314415854    23    Uiso    1
H25      H    0.2059301313    0.1626904682   0.6246383270    24    Uiso    1
H26      H    0.6959264058    0.2793419133   0.5855508209    25    Uiso    1
H27      H    0.6122440249    0.6601187768   0.6269355751    26    Uiso    1
N28      N    0.3466405799    0.5805545094   0.7005811974    27    Uiso    1
C29      C    0.7053898883    0.3701466629   0.5931305956    28    Uiso    1
H30      H    0.3499483728    0.1344094744   0.6426967423    29    Uiso    1
O31      O    0.5242427372    0.4320631152   0.6529356022    30    Uiso    1
O32      O    0.4146821423    0.6053768928   0.7734559959    31    Uiso    1
O33      O    0.2792677510    0.3648491162   0.6559686537    32    Uiso    1
O34      O    0.2465682442    0.6053198368   0.7019978978    33    Uiso    1
H35      H    0.7338309182    0.3887044210   0.6779124764    34    Uiso    1
