data_clean
_audit_creation_date              2022-02-10
_audit_creation_method            'Materials Studio'
_symmetry_space_group_name_H-M    'P1'
_symmetry_Int_Tables_number       1
_symmetry_cell_setting            triclinic
loop_
_symmetry_equiv_pos_as_xyz
  x,y,z
_cell_length_a                    5.8061
_cell_length_b                    14.3387
_cell_length_c                    19.3194
_cell_angle_alpha                 90.0000
_cell_angle_beta                  90.0000
_cell_angle_gamma                 81.0568
loop_
_atom_site_label
_atom_site_type_symbol
_atom_site_fract_x
_atom_site_fract_y
_atom_site_fract_z
_atom_site_U_iso_or_equiv
_atom_site_adp_type
_atom_site_occupancy
Bi1    Bi    0.58516   0.93759   0.00000   0.00000  Uiso   1.00
Bi2    Bi    0.90083   0.41771   0.07161   0.00000  Uiso   1.00
Bi3    Bi    0.21651   0.89784   0.14323   0.00000  Uiso   1.00
Bi4    Bi    0.84786   0.85810   0.28645   0.00000  Uiso   1.00
Bi5    Bi    0.02042   0.10621   0.02515   0.00000  Uiso   1.00
Bi6    Bi    0.33609   0.58634   0.09676   0.00000  Uiso   1.00
Bi7    Bi    0.65177   0.06647   0.16838   0.00000  Uiso   1.00
Bi8    Bi    0.28312   0.02673   0.31161   0.00000  Uiso   1.00
Bi9    Bi    0.96745   0.54660   0.23999   0.00000  Uiso   1.00
C1     C     0.45454   0.27781   0.05075   0.00000  Uiso   1.00
C2     C     0.08589   0.23807   0.19397   0.00000  Uiso   1.00
C3     C     0.77022   0.75794   0.12236   0.00000  Uiso   1.00
O1     O     0.48884   0.18847   0.03742   0.00000  Uiso   1.00
O2     O     0.12019   0.14873   0.18065   0.00000  Uiso   1.00
O3     O     0.80452   0.66860   0.10903   0.00000  Uiso   1.00
O6     O     0.28336   0.33307   0.02268   0.00000  Uiso   1.00
O7     O     0.91471   0.29333   0.16591   0.00000  Uiso   1.00
O8     O     0.59904   0.81320   0.09430   0.00000  Uiso   1.00
O11    O     0.04610   0.53931   0.01517   0.00000  Uiso   1.00
O12    O     0.36178   0.01944   0.08679   0.00000  Uiso   1.00
O13    O     0.67745   0.49957   0.15840   0.00000  Uiso   1.00
O14    O     0.99313   0.97970   0.23001   0.00000  Uiso   1.00
O15    O     0.62448   0.93996   0.37324   0.00000  Uiso   1.00
O16    O     0.55535   0.51523   0.01158   0.00000  Uiso   1.00
O17    O     0.18670   0.47549   0.15481   0.00000  Uiso   1.00
O18    O     0.87102   0.99536   0.08320   0.00000  Uiso   1.00
O19    O     0.50237   0.95562   0.22642   0.00000  Uiso   1.00
O20    O     0.81805   0.43575   0.29804   0.00000  Uiso   1.00
O21    O     0.13372   0.91588   0.36965   0.00000  Uiso   1.00
O22    O     0.59072   0.31372   0.09241   0.00000  Uiso   1.00
O23    O     0.22207   0.27398   0.23564   0.00000  Uiso   1.00
O24    O     0.90639   0.79385   0.16402   0.00000  Uiso   1.00
Bi10   Bi    0.53217   0.37797   0.21484   0.00000  Uiso   1.00
O27    O     0.30881   0.45983   0.30163   0.00000  Uiso   1.00
Bi19   Bi    0.97382   0.55133   0.23752   0.00000  Uiso   1.00
Bi20   Bi    0.54084   0.38101   0.21573   0.00000  Uiso   1.00
Bi31   Bi    0.28950   0.03146   0.30913   0.00000  Uiso   1.00
Bi32   Bi    0.85652   0.86115   0.28734   0.00000  Uiso   1.00
loop_
_geom_bond_atom_site_label_1
_geom_bond_atom_site_label_2
_geom_bond_distance
_geom_bond_site_symmetry_2
_ccdc_geom_bond_type
Bi1    O12     2.323   1_565 S
Bi2    O11     2.323   1_655 S
Bi2    O13     2.323   .     S
Bi3    O12     2.323   1_565 S
Bi3    O14     2.323   1_455 S
Bi4    O14     2.323   .     S
Bi4    O15     2.323   .     S
Bi5    O12     2.475   .     S
Bi5    O18     2.228   1_445 S
Bi6    O11     2.475   .     S
Bi6    O13     2.475   .     S
Bi6    O16     2.228   .     S
Bi6    O17     2.228   .     S
Bi7    O12     2.475   .     S
Bi7    O14     2.475   1_545 S
Bi7    O18     2.228   1_545 S
Bi7    O19     2.228   1_545 S
Bi8    O14     2.475   1_445 S
Bi8    O15     2.475   1_545 S
Bi8    O19     2.228   1_545 S
Bi8    O21     2.228   1_545 S
Bi9    O13     2.475   .     S
Bi9    O17     2.228   1_655 S
Bi9    O20     2.228   .     S
Bi9    O27     2.475   1_655 S
C1     O1      1.291   .     S
C1     O6      1.290   .     S
C1     O22     1.290   .     D
C2     O2      1.291   .     S
C2     O7      1.290   1_455 S
C2     O23     1.290   .     D
C3     O3      1.291   .     S
C3     O8      1.290   .     S
C3     O24     1.290   .     D
O7     C2      1.290   1_655 S
O7     Bi20    2.524   .     S
O11    Bi2     2.323   1_455 S
O12    Bi1     2.323   1_545 S
O12    Bi3     2.323   1_545 S
O13    Bi10    2.323   .     S
O13    Bi19    2.499   .     S
O13    Bi20    2.273   .     S
O14    Bi8     2.475   1_665 S
O14    Bi7     2.475   1_565 S
O14    Bi3     2.323   1_655 S
O14    Bi31    2.499   1_665 S
O14    Bi32    2.273   .     S
O15    Bi8     2.475   1_565 S
O15    Bi31    2.499   1_565 S
O15    Bi32    2.318   .     S
O17    Bi9     2.228   1_455 S
O17    Bi19    2.201   1_455 S
O18    Bi5     2.228   1_665 S
O18    Bi7     2.228   1_565 S
O19    Bi8     2.228   1_565 S
O19    Bi7     2.228   1_565 S
O19    Bi31    2.201   1_565 S
O20    Bi19    2.323   .     S
O20    Bi20    2.475   .     S
O21    Bi8     2.228   1_565 S
O21    Bi31    2.323   1_565 S
O21    Bi32    2.475   1_455 S
Bi10   O27     2.323   .     S
O27    Bi9     2.475   1_455 S
O27    Bi19    2.499   1_455 S
O27    Bi20    2.318   .     S
Bi19   O27     2.499   1_655 S
Bi19   O17     2.201   1_655 S
Bi31   O19     2.201   1_545 S
Bi31   O14     2.499   1_445 S
Bi31   O21     2.323   1_545 S
Bi31   O15     2.499   1_545 S
Bi32   O21     2.475   1_655 S
