data_image0
_chemical_formula_structural       OBiOCBiO4BiOCBiO4BiOCBiO4BiOCBiO4BiOCBiO4BiOCO2CO
_chemical_formula_sum              "O30 Bi11 C7"
_cell_length_a       5.8061
_cell_length_b       14.3387
_cell_length_c       20.2647
_cell_angle_alpha    90
_cell_angle_beta     90
_cell_angle_gamma    81.0568

_space_group_name_H-M_alt    "P 1"
_space_group_IT_number       1

loop_
  _space_group_symop_operation_xyz
  'x, y, z'

loop_
  _atom_site_type_symbol
  _atom_site_label
  _atom_site_symmetry_multiplicity
  _atom_site_fract_x
  _atom_site_fract_y
  _atom_site_fract_z
  _atom_site_occupancy
  O   O1        1.0  0.96769  0.85294  0.00000  1.0000
  Bi  Bi1       1.0  0.70474  0.62608  0.00235  1.0000
  O   O2        1.0  0.17316  0.70834  0.01405  1.0000
  C   C1        1.0  0.13887  0.79768  0.02675  1.0000
  Bi  Bi2       1.0  0.58516  0.93759  0.04665  1.0000
  O   O3        1.0  0.55535  0.51523  0.05769  1.0000
  O   O4        1.0  0.04610  0.53931  0.06111  1.0000
  O   O5        1.0  0.27504  0.83359  0.06647  1.0000
  O   O6        1.0  0.28336  0.33307  0.06827  1.0000
  Bi  Bi3       1.0  0.02042  0.10621  0.07063  1.0000
  O   O7        1.0  0.48884  0.18847  0.08232  1.0000
  C   C2        1.0  0.45454  0.27781  0.09503  1.0000
  Bi  Bi4       1.0  0.90083  0.41771  0.11492  1.0000
  O   O8        1.0  0.87102  0.99536  0.12596  1.0000
  O   O9        1.0  0.36178  0.01944  0.12939  1.0000
  O   O10       1.0  0.59072  0.31372  0.13475  1.0000
  O   O11       1.0  0.59904  0.81320  0.13655  1.0000
  Bi  Bi5       1.0  0.33609  0.58634  0.13890  1.0000
  O   O12       1.0  0.80452  0.66860  0.15060  1.0000
  C   C3        1.0  0.77022  0.75794  0.16330  1.0000
  Bi  Bi6       1.0  0.21651  0.89784  0.18319  1.0000
  O   O13       1.0  0.18670  0.47549  0.19424  1.0000
  O   O14       1.0  0.67745  0.49957  0.19766  1.0000
  O   O15       1.0  0.90639  0.79385  0.20302  1.0000
  O   O16       1.0  0.91471  0.29333  0.20482  1.0000
  Bi  Bi7       1.0  0.65177  0.06647  0.20717  1.0000
  O   O17       1.0  0.12019  0.14873  0.21887  1.0000
  C   C4        1.0  0.08589  0.23807  0.23157  1.0000
  Bi  Bi8       1.0  0.53218  0.37797  0.25147  1.0000
  O   O18       1.0  0.50237  0.95562  0.26251  1.0000
  O   O19       1.0  0.99313  0.97970  0.26593  1.0000
  O   O20       1.0  0.22207  0.27398  0.27129  1.0000
  O   O21       1.0  0.23039  0.77346  0.27309  1.0000
  Bi  Bi9       1.0  0.96745  0.54660  0.27544  1.0000
  O   O22       1.0  0.43587  0.62886  0.28714  1.0000
  C   C5        1.0  0.40157  0.71820  0.29985  1.0000
  Bi  Bi10      1.0  0.84786  0.85810  0.31974  1.0000
  O   O23       1.0  0.81805  0.43575  0.33078  1.0000
  O   O24       1.0  0.30881  0.45983  0.33420  1.0000
  O   O25       1.0  0.53775  0.75411  0.33956  1.0000
  O   O26       1.0  0.54607  0.25359  0.34136  1.0000
  Bi  Bi11      1.0  0.28312  0.02673  0.34372  1.0000
  O   O27       1.0  0.75154  0.10899  0.35541  1.0000
  C   C6        1.0  0.71724  0.19833  0.36812  1.0000
  O   O28       1.0  0.85342  0.23424  0.40784  1.0000
  S   O29       1.0  0.54124  0.75389  0.34031  1.0000
  Si   C7        1.0  0.40267  0.71951  0.30041  1.0000
  S   O30       1.0  0.23039  0.77346  0.27309  1.0000
